!Reduced gasoline surrogate (toluene/n-heptane/iso-octane) chemical kinetic model for compression ignition simulations
!S. Mani Sarathy et al.
!KAUST, Clean Combustion Research Center, Thuwal, Saudi Arabia
!Copyright All Rights Reserved
THERMO
   300.000  1000.000  5000.000
!toluen
C6H5CH3           l 6/87C   7H   8    0    0g  200.0000 6000.0000 1000.00      1
 1.29400340e+01 2.66912870e-02-9.68385050e-06 1.57386290e-09-9.46636010e-14    2
-6.58670553e+02-4.66855420e+01-2.43395338e+00 5.52665386e-02-1.43012515e-05    3
-1.34211403e-08 6.31647638e-12 4.43334751e+03 3.66431988e+01                   4
C6H5CH2           iu3/03C   7H   7    0    0g  250.0000 6000.0000 1000.00      1
 1.47230520e+01 2.30342440e-02-8.48473590e-06 1.39169620e-09-8.42479670e-14    2
 1.80276246e+04-5.58951695e+01-5.82826786e+00 8.66126552e-02-9.21076288e-05    3
 6.01075277e-08-1.82042779e-11 2.36090846e+04 4.92594176e+01                   4
C6H5CHO    5/16/90 THERMC   7H   6O   1    0G  300.0000 5000.0000 1386.00      1
 1.74024893e+01 1.89508317e-02-6.58694307e-06 1.03413046e-09-6.04793155e-14    2
-1.31347923e+04-6.83284224e+01-2.60353345e+00 6.45521810e-02-4.65225481e-05    3
 1.75020923e-08-2.85902517e-12-6.09349966e+03 3.95197874e+01                   4
C6H5CO                  C   7H   5O   1    0G  300.0000 5000.0000 1396.00      1
 1.79587471e+01 1.58218495e-02-5.48154854e-06 8.58709339e-10-5.01435299e-14    2
 3.79361859e+03-7.06233364e+01-1.99760308e+00 6.73502233e-02-5.83626802e-05    3
 2.66387303e-08-5.06805017e-12 1.02416800e+04 3.48678620e+01                   4
C6H6              G 6/01C   6H   6    0    0G  200.0000 6000.0000 1000.00      1
 1.10809576e+01 2.07176746e-02-7.52145991e-06 1.22320984e-09-7.36091279e-14    2
 4.34159966e+03-4.00033193e+01-3.09552155e+00 4.89667572e-02-1.53120946e-05    3
-1.12368522e-08 6.10448405e-12 8.86981257e+03 3.61793947e+01                   4
C6H5              T04/02C   6H   5    0    0G  200.0000 6000.0000 1000.00      1
 1.08444762e+01 1.73212473e-02-6.29233249e-06 1.02369961e-09-6.16216828e-14    2
 3.55919142e+04-3.53388751e+01-3.07054064e+00 4.82358178e-02-2.22615384e-05    3
-4.12153284e-09 4.05326297e-12 3.98360456e+04 3.85390446e+01                   4
C6H5OH            L 4/84C   6H   6O   1    0G  300.0000 5000.0000 1000.00      1
 1.49120730e+01 1.83781350e-02-6.19831280e-06 9.19832210e-10-4.92095650e-14    2
-1.83501993e+04-5.58864162e+01-4.77965066e+00 7.74794749e-02-7.80682783e-05    3
 4.61226381e-08-1.27916662e-11-1.30047005e+04 4.50908469e+01                   4
C6H5O             T05/02C   6H   5O   1    0G  200.0000 6000.0000 1000.00      1
 1.37221720e+01 1.74688771e-02-6.35504520e-06 1.03492308e-09-6.23410504e-14    2
 3.14029918e+02-4.87892668e+01-3.20361501e+00 6.45073124e-02-5.45387062e-05    3
 2.39900872e-08-4.94649243e-12 5.01985886e+03 3.87526394e+01                   4
C5H5             TAK0505C   5H   5    0    0G  298.1500 3500.0000  969.35      1
 1.33675715e+00 3.24793912e-02-1.67587774e-05 4.03514137e-09-3.70739036e-13    2
 3.00730525e+04 1.60315806e+01-3.97555377e+00 7.41370931e-02-1.11803328e-04    3
 9.04628594e-08-2.80999678e-11 3.01769404e+04 3.67153605e+01                   4
C5H4OH            T 8/99C   5H   5O   1    0G  200.0000 6000.0000 1000.00      1
 1.33741248e+01 1.51996469e-02-5.45685046e-06 8.80944866e-10-5.27493258e-14    2
 2.22606015e+03-4.59326242e+01-3.58397597e+00 6.84915274e-02-7.05337725e-05    3
 3.89915506e-08-9.42021272e-12 6.57636928e+03 4.00946971e+01                   4
C5H4O             T 8/99C   5H   4O   1    0G  200.0000 6000.0000 1000.00      1
 1.00806824e+01 1.61143465e-02-5.83314509e-06 9.46759320e-10-5.68972206e-14    2
 1.96056755e+03-2.94338853e+01-1.46654715e+00 4.81354850e-02-4.11863254e-05    3
 2.17786224e-08-6.00948903e-12 5.26417384e+03 3.05311958e+01                   4
C4H5-N            H6W/94C   4H   5    0    0G  300.0000 3000.0000 1000.00      1
 9.85019780e+00 1.07790080e-02-1.36721250e-06-7.72005350e-10 1.83663140e-13    2
 3.88469506e+04-2.59917181e+01-6.57590703e-01 4.65379868e-02-5.28574743e-05    3
 3.69627358e-08-1.13120066e-11 4.15041190e+04 2.68753359e+01                   4
!reduced 2mhx
C7H16-2    3/ 6/96 THERMC   7H  16    0    0G   300.000  5000.000 1392.000    61
 2.21573551E+01 3.51221368E-02-1.20277506E-05 1.86869531E-09-1.08466169E-13    2
-3.54503322E+04-9.28253565E+01-1.85211796E+00 8.77705520E-02-5.56896735E-05    3
 1.82531514E-08-2.47030871E-12-2.66915050E+04 3.74676492E+01                   4
C7H15-2    5/ 8/ 5 THERMC   7H  15    0    0G   300.000  5000.000 1382.000    61
 2.24163916E+01 3.33705214E-02-1.16508030E-05 1.83370999E-09-1.07399886E-13    2
-1.08225989E+04-9.16250687E+01-1.85943896E+00 8.73203715E-02-5.90489689E-05    3
 2.17668884E-08-3.49833738E-12-1.84991711E+03 4.01795830E+01                   4
C7H14-2    5/ 8/ 5 THERMC   7H  14    0    0G   300.000  5000.000 1392.000    51
 2.10362326E+01 3.12251826E-02-1.06455286E-05 1.64909068E-09-9.55267368E-14    2
-2.00231696E+04-8.49618607E+01-8.12686348E-01 8.00476466E-02-5.21693265E-05    3
 1.77322031E-08-2.50122983E-12-1.21587692E+04 3.32583208E+01                   4
C7H14OOH-2 5/25/ 5 THERMC   7H  15O   2    0G   300.000  5000.000 1474.000    81
 3.00990372E+01 2.89275356E-02-9.67268699E-06 1.48109011E-09-8.51715315E-14    2
-2.25216055E+04-1.25984918E+02 3.27530188E-01 9.35128072E-02-5.88462374E-05    3
 1.62226062E-08-1.31364638E-12-1.19940253E+04 3.51535878E+01                   4
C7H15O2-2      5/5 THERMC   7H  15O   2    0G   300.000  5000.000 1533.000    81
 2.96474387E+01 2.89846012E-02-9.62130437E-06 1.46575105E-09-8.39846384E-14    2
-3.02750068E+04-1.25135157E+02-3.84776574E-01 9.61708154E-02-6.33622293E-05    3
 1.91220080E-08-1.94501019E-12-1.98723703E+04 3.66683638E+01                   4
C7KET-2        5/5 THERMC   7H  14O   3    0G   300.000  5000.000 1406.000    81
 2.98808105E+01 2.84431768E-02-9.35774170E-06 1.41653130E-09-8.07889716E-14    2
-5.90774815E+04-1.22719788E+02 3.41991196E-01 1.01227895E-01-7.72260081E-05    3
 2.97955629E-08-4.56137512E-12-4.94109985E+04 3.42242411E+01                   4
C7H14OOHO2-2   5/5 THERMC   7H  15O   4    0G   300.000  5000.000 1394.000    11
 3.17488439E+01 3.38136532E-02-1.38324026E-05 2.53337654E-09-1.64684489E-13    2
-4.03772515E+04-1.29186203E+02-2.81886696E+00 1.27399421E-01-1.12031687E-04    3
 4.95222164E-08-8.73239622E-12-2.97891206E+04 5.16946991E+01                   4
!reduced NC5
NC5H12     9/ 8/14      C   5H  12    0    0G   300.000  5000.000 1393.000    41
 1.58289132E+01 2.59344752E-02-8.83016276E-06 1.36654986E-09-7.91029283E-14    2
-2.59397429E+04-6.05558457E+01-2.99551806E-01 5.94963054E-02-3.41764359E-05    3
 9.47896058E-09-9.73675086E-13-1.98959978E+04 2.75742132E+01                   4
NC5H11     9/ 8/14      C   5H  11    0    0G   300.000  5000.000 1394.000    41
 1.51918481E+01 2.40339049E-02-8.19717624E-06 1.27002751E-09-7.35727956E-14    2
-8.02148517E+02-5.36479311E+01 9.83190194E-02 5.58653605E-02-3.28855625E-05    3
 9.58366873E-09-1.08641370E-12 4.82065818E+03 2.86921367E+01                   4
NC5H10     9/ 8/14      C   5H  10    0    0G   300.000  5000.000 1390.000    31
 1.43624894E+01 2.26076154E-02-7.70500843E-06 1.19329968E-09-6.91126022E-14    2
-1.00192871E+04-5.12512094E+01-1.65023816E-01 5.30727359E-02-3.10861587E-05    3
 8.92413402E-09-9.81619602E-13-4.59376228E+03 2.80570113E+01                   4
NC5H10OOH   9/8/14      C   5H  11O   2    0G   300.000  5000.000 1396.000    61
 2.00795991E+01 2.43589475E-02-8.36202795E-06 1.30140406E-09-7.56329790E-14    2
-1.33166011E+04-7.30604965E+01 2.65531081E+00 6.13777489E-02-3.72526890E-05    3
 1.10683497E-08-1.26575773E-12-6.87569412E+03 2.18610512E+01                   4
NC5H11O2   9/ 8/14      C   5H  11O   2    0G   300.000  5000.000 1401.000    51
 2.01379084E+01 2.43048677E-02-8.24744582E-06 1.27344965E-09-7.35953601E-14    2
-2.17777897E+04-7.59194124E+01 1.95945265E+00 6.73012650E-02-4.74261817E-05    3
 1.76453313E-08-2.71599328E-12-1.55102022E+04 2.15326067E+01                   4
NC5H10OOH-O2 9/14       C   5H  11O   4    0G   300.000  5000.000 1394.000    71
 2.71105703E+01 2.34082367E-02-8.11719657E-06 1.27230537E-09-7.43221831E-14    2
-3.41406290E+04-1.08093476E+02 2.92123878E+00 7.67601721E-02-5.10111840E-05    3
 1.59643052E-08-1.82979631E-12-2.55486792E+04 2.27306226E+01                   4
NC5KET     9/ 8/14      C   5H  10O   3    0G   300.000  5000.000 1386.000    61
 2.56958620E+01 1.97581564E-02-6.83008913E-06 1.06937987E-09-6.24522080E-14    2
-4.91027960E+04-1.03505108E+02-1.29174799E+00 8.64138926E-02-7.02456071E-05    3
 2.86657248E-08-4.68321816E-12-4.01718501E+04 4.00248297E+01                   4
!reduced IC5
IC5H12     9/ 8/14      C   5H  12    0    0G   300.000  5000.000 1397.000    41
 1.59790958E+01 2.57511190E-02-8.75373554E-06 1.35318160E-09-7.82642580E-14    2
-2.66608136E+04-6.19207317E+01-1.38253385E+00 6.53645895E-02-4.34522951E-05    3
 1.52986287E-08-2.25248819E-12-2.04926224E+04 3.17292839E+01                   4
IC5H11     9/ 8/14      C   5H  11    0    0G   300.000  5000.000 1397.000    41
 1.53440125E+01 2.38465896E-02-8.11897135E-06 1.25634599E-09-7.27146606E-14    2
-1.52767896E+03-5.50323375E+01-1.05353982E+00 6.19729558E-02-4.24710792E-05    3
 1.55773628E-08-2.40104166E-12 4.23634137E+03 3.31805856E+01                   4
IC5H11O2   9/ 8/14      C   5H  11O   2    0G   300.000  5000.000 1396.000    51
 2.00710052E+01 2.46047087E-02-8.40507957E-06 1.30373672E-09-7.55899526E-14    2
-2.06670757E+04-7.55077454E+01 4.33973910E-01 7.13982313E-02-5.16583407E-05    3
 1.97686122E-08-3.13751422E-12-1.39106770E+04 2.96761102E+01                   4
IC5H10OOH   9/8/14      C   5H  11O   2    0G   300.000  5000.000 1398.000    61
 2.04730841E+01 2.38768580E-02-8.16265188E-06 1.26680916E-09-7.34771763E-14    2
-1.27728563E+04-7.57172349E+01-1.70898042E-03 7.39903239E-02-5.59517601E-05    3
 2.23367236E-08-3.67395948E-12-5.87093071E+03 3.34672541E+01                   4
IC5H10     9/ 8/14      C   5H  10    0    0G   300.000  5000.000 1392.000    31
 1.41931279E+01 2.26551019E-02-7.70008627E-06 1.19031326E-09-6.88489604E-14    2
-1.19491010E+04-5.10688681E+01-5.39429136E-01 5.44489715E-02-3.32707895E-05    3
 1.03047694E-08-1.28363329E-12-6.53967251E+03 2.90349986E+01                   4
IC5H10OOH-O2  9/14      C   5H  11O   4    0G   300.000  5000.000 1397.000    71
 2.51246846E+01 2.47883083E-02-8.52048861E-06 1.32728569E-09-7.71886075E-14    2
-3.18988778E+04-9.57993329E+01 1.56380071E+00 8.29798833E-02-6.44672355E-05    3
 2.61513298E-08-4.33760267E-12-2.40270626E+04 2.96266556E+01                   4
IC5KET     9/ 8/14      C   5H  10O   3    0G   300.000  5000.000 1396.000    61
 2.14062122E+01 2.31814714E-02-7.94585296E-06 1.23549697E-09-7.17602293E-14    2
-4.77919593E+04-7.94699242E+01 2.55453432E+00 6.48725206E-02-4.21449634E-05    3
 1.35396181E-08-1.69771989E-12-4.10439664E+04 2.25509833E+01                   4
!reduced NC7
C3H4-A            L 8/89C  3 H  4    0    0 G   200.000  6000.00  1000.00      1
 0.63168722E+01 0.11133728E-01-0.39629378E-05 0.63564238E-09-0.37875540E-13    2
 0.20117495E+05-0.10995766E+02 0.26130445E+01 0.12122575E-01 0.18539880E-04    3
-0.34525149E-07 0.15335079E-10 0.21541567E+05 0.10226139E+02 0.22962267E+05    4
C6H12      5/14/ 3 THERMC   6H  12    0    0G   300.000  5000.000 1390.000    41
 1.73616148E+01 2.71634902E-02-9.25249439E-06 1.43247725E-09-8.29472521E-14    2
-1.55509547E+04-6.61857343E+01-8.37810520E-01 6.64334712E-02-4.08801772E-05    3
 1.27558015E-08-1.60665165E-12-8.86347329E+03 3.27785200E+01                   4
NC7H16                  C   7H  16    0    0G   300.000  5000.000 1395.000    61
 2.25012314E+01 3.46122447E-02-1.18043982E-05 1.82894500E-09-1.05955678E-13    2
-3.43062239E+04-9.33711818E+01-9.08407323E-01 8.52753530E-02-5.25668671E-05    3
 1.62954250E-08-2.01050130E-12-2.57434808E+04 3.38295611E+01                   4
NC7H15                  C   7H  15    0    0G   300.000  5000.000 1396.000    61
 2.14174224E+01 3.28392073E-02-1.11628188E-05 1.72585155E-09-9.98390142E-14    2
-1.06455467E+04-8.35962465E+01 3.97035978E-01 7.41511374E-02-3.83235778E-05    3
 7.74076842E-09-1.21846705E-13-2.61270661E+03 3.19805516E+01                   4
NC7H14     7/19/ 0 THERMC   7H  14    0    0G   300.000  5000.000 1390.000    51
 2.06192047E+01 3.14852991E-02-1.07162057E-05 1.65827662E-09-9.59911785E-14    2
-1.96713162E+04-8.22519387E+01-1.16533279E+00 7.90439806E-02-4.96101666E-05    3
 1.58569009E-08-2.05346433E-12-1.17362359E+04 3.59871070E+01                   4
NC7H15OO                C   7H  15O   2    0G   300.000  5000.000 1399.000    71
 2.72644843E+01 3.26945656E-02-1.11450170E-05 1.72632915E-09-9.99959530E-14    2
-3.03857809E+04-1.11491892E+02 1.20198260E+00 9.33836346E-02-6.50845852E-05    3
 2.35152589E-08-3.47595547E-12-2.13315851E+04 2.85195439E+01                   4
NC7H14OOH               C   7H  15O   2    0G   300.000  5000.000 1400.000    81
 2.79788938E+01 3.17340951E-02-1.08300553E-05 1.67892063E-09-9.73081404E-14    2
-2.26191550E+04-1.13340193E+02 1.28356907E+00 9.44955667E-02-6.71910982E-05    3
 2.46830552E-08-3.69644605E-12-1.34221407E+04 2.98300713E+01                   4
OONC7H14OOH             C   7H  15O   4    0G   300.000  5000.000 1394.000    91
 3.39461015E+01 3.20348143E-02-1.10936268E-05 1.73715155E-09-1.01404253E-13    2
-4.26242723E+04-1.41965954E+02 2.32043086E+00 1.02080359E-01-6.80665886E-05    3
 2.17353894E-08-2.61149960E-12-3.13880160E+04 2.90263218E+01                   4
NC7KET                  C   7H  14O   3    0G   300.000  5000.000 1387.000    81
 3.13654946E+01 2.83825370E-02-9.59763655E-06 1.48080243E-09-8.56069968E-14    2
-6.07950743E+04-1.30969387E+02-4.64885680E-01 1.03357179E-01-7.61139823E-05    3
 2.78751565E-08-4.03730693E-12-4.99658596E+04 3.94918604E+01                   4
NC5H11CO                C   6H  11O   1    0G   300.000  5000.000 1387.000    51
 2.00712533E+01 2.47109029E-02-8.46937882E-06 1.31698154E-09-7.65012214E-14    2
-2.14161547E+04-7.62093348E+01 2.03899694E+00 5.97834497E-02-3.08487256E-05    3
 5.75699235E-09 8.35477271E-14-1.45087642E+04 2.30358058E+01                   4

XC7H14     2/18/ 5      C   7H  14    0    0G   300.000  5000.000 1392.000    51
 2.10164030E+01 3.15214597E-02-1.08073947E-05 1.68040191E-09-9.75892313E-14    2
-1.96515641E+04-8.63818785E+01-1.33081497E+00 8.21082352E-02-5.49123303E-05    3
 1.94284948E-08-2.88886542E-12-1.16419975E+04 3.43549746E+01                   4


C8H17O2H   4/11/16      C   8H  18O   2    0G   300.000  5000.000 1379.000    91
 3.39460269E+01 3.77553556E-02-1.32087493E-05 2.08237078E-09-1.22124032E-13    2
-5.39178818E+04-1.53697828E+02-1.18239856E+00 1.11135200E-01-6.82188579E-05    3
 1.91912499E-08-1.86950702E-12-4.08860325E+04 3.79880020E+01                   4
C7H15O2H     19/ 0 THERMC   7H  16O   2    0G   300.000  5000.000 1388.000    81
 2.77185802E+01 3.52624458E-02-1.22144164E-05 1.91237244E-09-1.11602067E-13    2
-4.62267320E+04-1.14955409E+02 2.69178904E-01 9.71211877E-02-6.59765921E-05    3
 2.35449071E-08-3.52849016E-12-3.63451119E+04 3.34740655E+01                   4
AR                G 5/97AR  1  0    0      0G   200.000  6000.00  1000.00      1
 2.50000000E+00 0.00000000E+00 0.00000000E+00 0.00000000E+00 0.00000000E+00    2
-7.45375000E+02 4.37967491E+00 2.50000000E+00 0.00000000E+00 0.00000000E+00    3
 0.00000000E+00 0.00000000E+00-7.45375000E+02 4.37967491E+00 0.00000000E+00    4
N2                G 8/02N   2    0    0    0G   200.000  6000.00  1000.00      1
 2.95257637E+00 1.39690040E-03-4.92631603E-07 7.86010195E-11-4.60755204E-15    2
-9.23948688E+02 5.87188762E+00 3.53100528E+00-1.23660988E-04-5.02999433E-07    3
 2.43530612E-09-1.40881235E-12-1.04697628E+03 2.96747038E+00 0.00000000E+00    4
HE                G 5/97HE 1    0    0    0 G   200.000  6000.00  1000.00      1
 2.50000000E+00 0.00000000E+00 0.00000000E+00 0.00000000E+00 0.00000000E+00    2
-7.45375000E+02 9.28723974E-01 2.50000000E+00 0.00000000E+00 0.00000000E+00    3
 0.00000000E+00 0.00000000E+00-7.45375000E+02 9.28723974E-01 0.00000000E+00    4
H2                TPIS78H   2    0    0    0G   200.000  6000.00  1000.00      1
 2.93286575E+00 8.26608026E-04-1.46402364E-07 1.54100414E-11-6.88804800E-16    2
-8.13065581E+02-1.02432865E+00 2.34433112E+00 7.98052075E-03-1.94781510E-05    3
 2.01572094E-08-7.37611761E-12-9.17935173E+02 6.83010238E-01 0.00000000E+00    4
H                 L 6/94H   1    0    0    0G   200.000  6000.00  1000.00      1
 0.25000000E+01 0.00000000E+00 0.00000000E+00 0.00000000E+00 0.00000000E+00    2
 0.25473660E+05-0.44668285E+00 0.25000000E+01 0.00000000E+00 0.00000000E+00    3
 0.00000000E+00 0.00000000E+00 0.25473660E+05-0.44668285E+00 0.26219035E+05    4
O2                RUS 89O   2    0    0    0G   200.000  6000.00  1000.00      1
 3.66096065E+00 6.56365811E-04-1.41149627E-07 2.05797935E-11-1.29913436E-15    2
-1.21597718E+03 3.41536279E+00 3.78245636E+00-2.99673416E-03 9.84730201E-06    3
-9.68129509E-09 3.24372837E-12-1.06394356E+03 3.65767573E+00 0.00000000E+00    4
O                 L 1/90O   1    0    0    0G   200.000  6000.00  1000.00      1
 2.54363697E+00-2.73162486E-05-4.19029520E-09 4.95481845E-12-4.79553694E-16    2
 2.92260120E+04 4.92229457E+00 3.16826710E+00-3.27931884E-03 6.64306396E-06    3
-6.12806624E-09 2.11265971E-12 2.91222592E+04 2.05193346E+00 2.99687009E+04    4
H2O               L 5/89H   2 O  1    0    0G   200.000  6000.00  1000.00      1
 0.26770389E+01 0.29731816E-02-0.77376889E-06 0.94433514E-10-0.42689991E-14    2
-0.29885894E+05 0.68825500E+01 0.41986352E+01-0.20364017E-02 0.65203416E-05    3
-0.54879269E-08 0.17719680E-11-0.30293726E+05-0.84900901E+00-0.29084817E+05    4
OH                IU3/03O   1 H  1    0    0G   200.000  6000.00  1000.00      1
 2.83853033E+00 1.10741289E-03-2.94000209E-07 4.20698729E-11-2.42289890E-15    2
 3.69780808E+03 5.84494652E+00 3.99198424E+00-2.40106655E-03 4.61664033E-06    3
-3.87916306E-09 1.36319502E-12 3.36889836E+03-1.03998477E-01 4.48613328E+03    4
OHV               121286O   1H   1          G  0300.00   5000.00  1000.00      1
 0.02882730E+02 0.10139743E-02-0.02276877E-05 0.02174683E-09-0.05126305E-14    2
 5.02650000E+04 0.05595712E+02 0.03637266E+02 0.01850910E-02-0.16761646E-05    3
 0.02387202E-07-0.08431442E-11 5.00213000E+04 0.13588605E+01                   4
H2O2              T 8/03H   2O   2    0    0G   200.000  6000.00  1000.00      1
 4.57977305E+00 4.05326003E-03-1.29844730E-06 1.98211400E-10-1.13968792E-14    2
-1.80071775E+04 6.64970694E-01 4.31515149E+00-8.47390622E-04 1.76404323E-05    3
-2.26762944E-08 9.08950158E-12-1.77067437E+04 3.27373319E+00-1.63425145E+04    4
HO2               T 1/09H   1O   2    0    0G   200.000  5000.00  1000.00      1
 4.17228741E+00 1.88117627E-03-3.46277286E-07 1.94657549E-11 1.76256905E-16    2
 3.10206839E+01 2.95767672E+00 4.30179807E+00-4.74912097E-03 2.11582905E-05    3
-2.42763914E-08 9.29225225E-12 2.64018485E+02 3.71666220E+00 1.47886045E+03    4
CO                RUS 79C   1O   1    0    0G   200.000  6000.00  1000.00      1
 0.30484859E+01 0.13517281E-02-0.48579405E-06 0.78853644E-10-0.46980746E-14    2
-0.14266117E+05 0.60170977E+01 0.35795335E+01-0.61035369E-03 0.10168143E-05    3
 0.90700586E-09-0.90442449E-12-0.14344086E+05 0.35084093E+01-0.13293628E+05    4
CO2               L 7/88C   1O   2    0    0G   200.000  6000.00  1000.00      1
 0.46365111E+01 0.27414569E-02-0.99589759E-06 0.16038666E-09-0.91619857E-14    2
-0.49024904E+05-0.19348955E+01 0.23568130E+01 0.89841299E-02-0.71220632E-05    3
 0.24573008E-08-0.14288548E-12-0.48371971E+05 0.99009035E+01-0.47328105E+05    4
HOCO              T05/06H  1 C  1 O  2    0 G   200.000  6000.00   1000.00     1
 5.39206152E+00 4.11221455E-03-1.48194900E-06 2.39875460E-10-1.43903104E-14    2
-2.38606717E+04-2.23529091E+00 2.92207919E+00 7.62453859E-03 3.29884437E-06    3
-1.07135205E-08 5.11587057E-12-2.30281524E+04 1.12925886E+01-2.18076591E+04    4
CH4               G 8/99C  1 H  4    0    0 G   200.000  6000.00  1000.00      1
 1.65326226E+00 1.00263099E-02-3.31661238E-06 5.36483138E-10-3.14696758E-14    2
-1.00095936E+04 9.90506283E+00 5.14911468E+00-1.36622009E-02 4.91453921E-05    3
-4.84246767E-08 1.66603441E-11-1.02465983E+04-4.63848842E+00-8.97226656E+03    4
CH3               IU0702C  1 H  3    0    0 G   200.000  6000.00  1000.00      1
 0.29781206E+01 0.57978520E-02-0.19755800E-05 0.30729790E-09-0.17917416E-13    2
 0.16509513E+05 0.47224799E+01 0.36571797E+01 0.21265979E-02 0.54583883E-05    3
-0.66181003E-08 0.24657074E-11 0.16422716E+05 0.16735354E+01 0.17643935E+05    4
CH2               IU3/03C  1 H  2    0    0 G   200.000  6000.00  1000.00      1
 3.14631886E+00 3.03671259E-03-9.96474439E-07 1.50483580E-10-8.57335515E-15    2
 4.60412605E+04 4.72341711E+00 3.71757846E+00 1.27391260E-03 2.17347251E-06    3
-3.48858500E-09 1.65208866E-12 4.58723866E+04 1.75297945E+00 4.70504920E+04    4
CH2(S)            IU6/03C  1 H  2    0    0 G   200.000  6000.00  1000.00      1
 3.13501686E+00 2.89593926E-03-8.16668090E-07 1.13572697E-10-6.36262835E-15    2
 5.05040504E+04 4.06030621E+00 4.19331325E+00-2.33105184E-03 8.15676451E-06    3
-6.62985981E-09 1.93233199E-12 5.03662246E+04-7.46734310E-01 5.15727280E+04    4
C                 L 7/88C   1     0    0   0G   200.000  6000.00  1000.00      1
 0.26055830E+01-0.19593434E-03 0.10673722E-06-0.16423940E-10 0.81870580E-15    2
 0.85411742E+05 0.41923868E+01 0.25542395E+01-0.32153772E-03 0.73379223E-06    3
-0.73223487E-09 0.26652144E-12 0.85442681E+05 0.45313085E+01 0.86195097E+05    4
CH                IU3/03C  1 H  1    0    0 G   200.000  6000.00  1000.00      1
 0.25209369E+01 0.17653639E-02-0.46147660E-06 0.59289675E-10-0.33474501E-14    2
 0.70946769E+05 0.74051829E+01 0.34897583E+01 0.32432160E-03-0.16899751E-05    3
 0.31628420E-08-0.14061803E-11 0.70612646E+05 0.20842841E+01 0.71658188E+05    4
CHV               073003C   1H   1          G  0300.00   5000.00  1000.00      1
 0.02196223E+02 0.02340381E-01-0.07058201E-05 0.09007582E-09-0.03855040E-13    2
 0.10419559E+06 0.09178373E+02 0.03200202E+02 0.02072875E-01-0.05134431E-04    3
 0.05733890E-07-0.01955533E-10 0.10393714E+06 0.03331587E+02                   4
CH3O2H            A 7/05C  1 H  4 O  2    0 G   200.000  6000.00  1000.00      1
 7.76538058E+00 8.61499712E-03-2.98006935E-06 4.68638071E-10-2.75339255E-14    2
-1.82979984E+04-1.43992663E+01 2.90540897E+00 1.74994735E-02 5.28243630E-06    3
-2.52827275E-08 1.34368212E-11-1.68894632E+04 1.13741987E+01-1.52423685E+04    4
CH3O2                   H   3C   1O   2    0G   300.000  5000.000 1374.000    11
 6.47970487E+00 7.44401080E-03-2.52348555E-06 3.89577296E-10-2.25182399E-14    2
-1.56285441E+03-8.19477074E+00 1.97339205E+00 1.53542340E-02-6.37314891E-06    3
 3.19930565E-10 2.82193915E-13 2.54278835E+02 1.69194215E+01                   4
CH2O2H     9/ 1/12      C   1H   3O   2    0G   300.000  5000.000 1410.000    21
 9.24697852E+00 4.60845541E-03-1.53501472E-06 2.34434830E-10-1.34573106E-14    2
 4.11529953E+03-2.11503248E+01 2.88976454E+00 2.09465776E-02-1.75190772E-05    3
 7.27819787E-09-1.18912344E-12 6.12390620E+03 1.23802076E+01                   4
CH3OH             T06/02C   1H  4 O  1    0 G   200.000  6000.00  1000.00      1
 3.52726795E+00 1.03178783E-02-3.62892944E-06 5.77448016E-10-3.42182632E-14    2
-2.60028834E+04 5.16758693E+00 5.65851051E+00-1.62983419E-02 6.91938156E-05    3
-7.58372926E-08 2.80427550E-11-2.56119736E+04-8.97330508E-01-2.41746056E+04    4
CH3O              IU1/03C  1 H  3 O  1    0 G   200.000  6000.00  1000.00      1
 4.75779238E+00 7.44142474E-03-2.69705176E-06 4.38090504E-10-2.63537098E-14    2
 3.78111940E+02-1.96680028E+00 3.71180502E+00-2.80463306E-03 3.76550971E-05    3
-4.73072089E-08 1.86588420E-11 1.29569760E+03 6.57240864E+00 2.52571660E+03    4
CH2OH             IU2/03C  1 H  3 O  1    0 G   200.000  6000.00   1000.00     1
 5.09314370E+00 5.94761260E-03-2.06497460E-06 3.23008173E-10-1.88125902E-14    2
-4.03409640E+03-1.84691493E+00 4.47834367E+00-1.35070310E-03 2.78484980E-05    3
-3.64869060E-08 1.47907450E-11-3.50072890E+03 3.30913500E+00-2.04462770E+03    4
CH2O              T 5/11H   2C   1O   1    0G   200.000  6000.00  1000.00      1
 3.16952665E+00 6.19320560E-03-2.25056366E-06 3.65975660E-10-2.20149458E-14    2
-1.45486831E+04 6.04207898E+00 4.79372312E+00-9.90833322E-03 3.73219990E-05    3
-3.79285237E-08 1.31772641E-11-1.43791953E+04 6.02798058E-01-1.31293365E+04    4
HCO               T 5/03C  1 H  1 O  1    0 G   200.000  6000.00  1000.00      1
 3.92001542E+00 2.52279324E-03-6.71004164E-07 1.05615948E-10-7.43798261E-15    2
 3.65342928E+03 3.58077056E+00 4.23754610E+00-3.32075257E-03 1.40030264E-05    3
-1.34239995E-08 4.37416208E-12 3.87241185E+03 3.30834869E+00 5.08749163E+03    4
HCOH              MAR94 C   1H   2O   1    0G   300.     5000.    1398.        1
 9.18749272E+00 1.52011152E-03-6.27603516E-07 1.09727989E-10-6.89655128E-15    2
 7.81364593E+03-2.73434214E+01-2.82157421E+00 3.57331702E-02-3.80861580E-05    3
 1.86205951E-08-3.45957838E-12 1.12956672E+04 3.48487757E+01                   4
HO2CHO     6/26/95 THERMC   1H   2O   3    0G   300.000  5000.000 1378.00     21
 9.87503878E+00 4.64663708E-03-1.67230522E-06 2.68624413E-10-1.59595232E-14    2
-3.80502496E+04-2.24939155E+01 2.42464726E+00 2.19706380E-02-1.68705546E-05    3
 6.25612194E-09-9.11645843E-13-3.54828006E+04 1.75027796E+01                   4
HOCH2O2H   9/ 1/12      C   1H   4O   3    0G   300.000  5000.000 1398.000    21
 1.24531886E+01 7.18221110E-03-2.47029548E-06 3.85611737E-10-2.24774193E-14    2
-4.24862928E+04-3.58745197E+01 5.35189713E-01 3.73266553E-02-3.15299511E-05    3
 1.30352583E-08-2.11473264E-12-3.86609415E+04 2.71776082E+01                   4
HOCH2O2    9/ 1/12      C   1H   3O   3    0G   300.000  5000.000 1377.000    21
 1.16406115E+01 5.72826040E-03-2.05362036E-06 3.29070695E-10-1.95188360E-14    2
-2.53505769E+04-3.07332064E+01 2.82068616E+00 2.47857094E-02-1.66186399E-05    3
 4.79633095E-09-4.28087766E-13-2.22077036E+04 1.70599803E+01                   4
OCH2O2H    7/21/14 THERMC   1H   3O   3    0G   300.000  5000.000 1418.000    31
 1.29622491E+01 4.21948855E-03-1.54275194E-06 2.50413077E-10-1.49855537E-14    2
-1.81326406E+04-3.87016356E+01 4.46349361E-01 3.63049606E-02-3.26130978E-05    3
 1.37050551E-08-2.20872791E-12-1.41972598E+04 2.72960376E+01                   4
HOCH2O     2/16/99 THERMC   1H   3O   2    0G   300.000  5000.000 1452.000    11
 6.39521515E+00 7.43673043E-03-2.50422354E-06 3.84879712E-10-2.21778689E-14    2
-2.41108840E+04-6.63865583E+00 4.11183145E+00 7.53850697E-03 3.77337370E-06    3
-5.38746005E-09 1.45615887E-12-2.28023001E+04 7.46807254E+00                   4
O2CHO      6/26/95 THERMC   1H   1O   3    0G   300.000  5000.000 1368.00     11
 7.24075139E+00 4.63312951E-03-1.63693995E-06 2.59706693E-10-1.52964699E-14    2
-1.87027618E+04-6.49547212E+00 3.96059309E+00 1.06002279E-02-5.25713351E-06    3
 1.01716726E-09-2.87487602E-14-1.73599383E+04 1.17807483E+01                   4
HOCHO             L 8/88H   2C   1O   2    0G   200.000  6000.00  1000.00      1
 0.46138316E+01 0.64496364E-02-0.22908251E-05 0.36716047E-09-0.21873675E-13    2
-0.47514850E+05 0.84788383E+00 0.38983616E+01-0.35587795E-02 0.35520538E-04    3
-0.43849959E-07 0.17107769E-10-0.46770609E+05 0.73495397E+01-0.45531246E+05    4
OCHO              ATCT/AC  1 O  2 H  1    0 G   200.000  6000.000 1000.00      1
 4.14394211E+00 5.59738818E-03-1.99794019E-06 3.16179193E-10-1.85614483E-14    2
-1.72459887E+04 5.07778617E+00 4.68825921E+00-4.14871834E-03 2.55066010E-05    3
-2.84473900E-08 1.04422559E-11-1.69867041E+04 4.28426480E+00-1.55992356E+04    4
C2H6              G 8/88C   2H 6    0      0G   200.000  6000.00  1000.00      1
 4.04666411E+00 1.53538802E-02-5.47039485E-06 8.77826544E-10-5.23167531E-14    2
-1.24473499E+04-9.68698313E-01 4.29142572E+00-5.50154901E-03 5.99438458E-05    3
-7.08466469E-08 2.68685836E-11-1.15222056E+04 2.66678994E+00-1.00849652E+04    4
C2H5       8/ 4/ 4 THERMC   2H   5    0    0G   300.000  5000.000 1387.000    11
 5.88784390E+00 1.03076793E-02-3.46844396E-06 5.32499257E-10-3.06512651E-14    2
 1.15065499E+04-8.49651771E+00 1.32730217E+00 1.76656753E-02-6.14926558E-06    3
-3.01143466E-10 4.38617775E-13 1.34284028E+04 1.71789216E+01                   4
C2H4       8/12/15      C   2H   4    0    0G   300.000  5000.000 1392.000    01
 5.07061289E+00 9.11140768E-03-3.10506692E-06 4.80733851E-10-2.78321396E-14    2
 3.66391217E+03-6.64501414E+00 4.81118223E-01 1.83778060E-02-9.99633565E-06    3
 2.73211039E-09-3.01837289E-13 5.44386648E+03 1.85867157E+01                   4
C2H3       8/12/15      C   2H   3    0    0G   300.000  5000.000 1400.000    01
 4.99675415E+00 6.55838271E-03-2.20921909E-06 3.39300272E-10-1.95316926E-14    2
 3.34604382E+04-3.01451097E+00 1.25545094E+00 1.57481597E-02-1.12218328E-05    3
 4.50915682E-09-7.74861577E-13 3.47435574E+04 1.69664043E+01                   4
C2H2              G 1/91C  2 H  2    0    0 G   200.000  6000.00  1000.00      1
 4.65878489E+00 4.88396667E-03-1.60828888E-06 2.46974544E-10-1.38605959E-14    2
 2.57594042E+04-3.99838194E+00 8.08679682E-01 2.33615762E-02-3.55172234E-05    3
 2.80152958E-08-8.50075165E-12 2.64289808E+04 1.39396761E+01 2.74459950E+04    4
CH2CHO            T03/10C  2 H  3 O  1    0 G   200.000  6000.00  1000.00      1