!Reduced gasoline surrogate (toluene/n-heptane/iso-octane/ethanol) chemical kinetic model for compression ignition simulations
!S. Mani Sarathy et al.
!KAUST, Clean Combustion Research Center, Thuwal, Saudi Arabia
!Copyright All Rights Reserved

ELEMENTS
C H N O AR HE NE
END


SPECIES
AR
HE
H2              
H               
O2              
O               
H2O             
OH              
H2O2            
HO2             
CO              
CO2             
CH4             
CH3             
CH2             
CH            
!DC CH3O2H          
CH3O2           
CH3OH           
CH3O            
CH2OH           
CH2O            
HCO             
!HOCHO !DC          
!DC C2H6            
C2H5            
C2H4            
C2H3            
C2H2            
CH3CO           
!DC CH2CHO          
CH2CO           
HCCO            
IC3H7           
C3H6            
C3H5-A          
!DC C2H3CHO         
!DC CH3COCH3        
C4H8-1          
NC7H16          
NC7H15          
NC7H14          
NC7H15OO        
NC7H14OOH       
OONC7H14OOH     
NC7KET          
NC5H11CO        
IC8H18          
C8H17           
C8H16           
C8H17O2         
C8H16OOH        
C8H16OOH-O2     
IC8KET          
C6H5CH3         
C6H5CH2         
C6H5CHO         
C6H5            
C6H6            
C6H5CO          
C6H5O           
C5H5            
C4H5-N
!Added
C2H5OH          
SC2H4OH
CH3CHO
N2          
END


REACTIONS
!toluene
!C6H5CH2+HO2=>C6H5CHO+H+OH	       2.500E+14    0.00        0.0 !test
C6H5CH3+OH<=>C6H5CH2+H2O	7.70E+04	1.39E+00	-602 !1.77E+05	2.39E+00	-6.02E+02 tuned
!C6H5CH3+HO2<=>C6H5CH2+H2O2	0.77E+05	2.39E+00	2.03E+04																


!Test_11 by Yang Li-----------------------------------------------------------------------------------!

!C6H5CH3+O2<=>C6H5CH2+HO2	3.49E+09	2.00E+00	4.0E+04	!tuned															


!Test_201 by Yang Li-----------------------------------------------------------------------------------!

!C6H5CH3+O2<=>C6H5CH2+HO2        1E+09        2.00E+00        4.0E+04

C6H5CH3+O2<=>C6H5CH2+HO2        1.5E+06        2.00E+00        3.0E+04

!Test_201 by Yang Li-----------------------------------------------------------------------------------!


!Test_11 by Yang Li-----------------------------------------------------------------------------------!


!For Stiffness by Yang Li
!C6H5CH2+OH<=>C6H5CHO+H2	2.11E+19	1.00E+00	00E+00    !changed to OH from O
C6H5CH2+OH<=>C6H5CHO+H2	3.0e14	0.0E+00	00E+00    !changed to OH from O


!For Stiffness by Yang Li
!C6H5CH2+HO2<=>C6H5CHO+H2O	2.11E+19	0.00E+00	00E+00 !added
C6H5CH2+HO2<=>C6H5CHO+H2O	3.0E+14	0.00E+00	00E+00 !added


C6H5CH2+O<=>C6H5CHO+H	2.11E+15	0.00E+00	0.00E+00																
C6H5CH2+O<=>C6H5+CH2O	5.95E+13	0.00E+00	0.00E+00
!C6H5CH2+OH<=>C6H5+CH2OH	5.95E+17	0.00E+00	0.00E+00
!C6H5CH2+HO2<=>C6H5OH+CH2O	5.95E+17	0.00E+00	0.00E+00																
C6H5CH3(+M)<=>C6H5CH2+H(+M)	2.78E+15	1.70E-01	9.12E+04																
LOW	/	1.00E+98	-2.29E+01	9.99E+04	/														
TROE	/	6.55E-02	1.51E+01	1.00E+10	7.60E+07	/													
C6H5CH3(+M)<=>C6H5+CH3(+M)	1.95E+27	-3.16E+00	1.07E+05																
LOW	/	1.00E+98	-2.30E+01	1.22E+05	/														
TROE	/	7.05E-01	1.00E+10	4.60E+02	8.21E+09	/													
C6H5CH3+H<=>C6H6+CH3	9.49E+05	2.00E+00	9.44E+02   !9.49E+05	2.00E+00	9.44E+02																
C6H5CHO+H<=>C6H5CO+H2	1.31E+05	2.58E+00	1.22E+03																


!Test_61 by Yang Li-----------------------------------------------------------------------------------!

!C6H5CHO+OH<=>C6H5CO+H2O	1.35E+13	0	-619																

C6H5CHO+OH<=>C6H5CO+H2O	3.37E+12	0	-619	

!Test_61 by Yang Li-----------------------------------------------------------------------------------!


C6H5+CO<=>C6H5CO	1.70E+12	0.63	16900																
C6H5+H(+M)<=>C6H6(+M)	1.00E+16	0.00E+00	0.00E+00  !tuned																
LOW	/	6.60E+77	-1.63E+01	7.00E+03	/														
TROE	/	1.00E+00	1.00E-01	5.85E+02	6.11E+03	/													
	H2	/	2	/	H2O	/	6	/	CH4	/	2	/	CO	/	1.5	/	CO2	/	2/
C6H6+H<=>C6H5+H2	2.50E+14	0.00E+00	1.60E+04																
C6H6+O<=>C6H5+OH	2.00E+13	0.00E+00	1.47E+04																
C6H6+OH<=>C6H5+H2O	1.20E+00	4.10E+00	-3.01E+02																
C6H5+O2<=>C6H5O+O	0.60E+16	0.00E+00	1.12E+04 !tuned																
C6H5O<=>CO+C5H5	2.00E+13	0.00E+00	3.5E+04		!tuned														
C5H5+O<=>C4H5-N+CO	3.20E+13	-1.70E-01	4.40E+02																
C2H3+C2H2<=>C4H5-N	1.10E+31	-7.14	5600																
PLOG/	0.0132	1.10E+31	-7.14	5600.0/															
PLOG/	0.0263	1.10E+32	-7.33	6200.0/															
PLOG/	0.12	2.40E+31	-6.95	5600.0/															
PLOG/	1	9.30E+38	-8.76	12000.0/															
PLOG/	10	8.10E+37	-8.09	13400.0/															


!nC7 reduced 


!Test_43 by Yang Li-----------------------------------------------------------------------------------!

!NC7H16+O2<=>NC7H15+HO2		9.50E+13	0	50424.099		 
!REV	/ 6.000E+11 0 1172.53/							  

NC7H16+O2<=>NC7H15+HO2		9.00E+13	0	50424.099		 
REV	/ 6.000E+11 0 1172.53/							  

!Test_43 by Yang Li-----------------------------------------------------------------------------------!


NC7H16+OH=>NC7H15+H2O			1.0E+14	0	2906.981		 
!REV	/ 7.00E+12	0 22824.669/							 
NC7H16+HO2=>NC7H15+H2O2		0.6E+13	0	19534.197	  
!REV	/ 6.00E+12	0 8800.42/								  

NC7H15+O2<=>NC7H15OO      		9E+12		0	0.0		
REV	/ 1.250E+15 0 33510.8/						


!Test_43 by Yang Li-----------------------------------------------------------------------------------!

!NC7H15OO<=>NC7H14OOH			1.56E+12	0	21350.315	!AC 1.2e11	  
!!REV	/ 1.000E+11 0 11000/

NC7H15OO<=>NC7H14OOH			1.2E+11  0    21350.315  
!REV	/ 1.000E+11 0 11000/

!Test_43 by Yang Li-----------------------------------------------------------------------------------!


!Test_43 by Yang Li-----------------------------------------------------------------------------------!

!NC7H14OOH+O2=OONC7H14OOH    	8.0E+13	0	0	!AC 10e12		 
!REV	/ 4.44E+10 0 22957.798/							 

NC7H14OOH+O2=OONC7H14OOH    10E+12   0    0            
REV  / 4.44E+10 0 22957.798/                            

!Test_43 by Yang Li-----------------------------------------------------------------------------------!


OONC7H14OOH=>NC7KET+OH		2.0E+11	0	18345.971		  


!Test_43 by Yang Li-----------------------------------------------------------------------------------!

!NC7KET=>OH+CH2O+NC5H11CO		3.6E+16	0	3.90E+04	!AC was 0.4e16	

NC7KET=>OH+CH2O+NC5H11CO         0.4E+16  0    3.90E+04     

!Test_43 by Yang Li-----------------------------------------------------------------------------------!


NC5H11CO+O2=>IC3H7+C2H3+CO+HO2	3.16E+13	0	10000			


!Test_43 by Yang Li-----------------------------------------------------------------------------------!

!NC7H15OO=NC7H14+HO2			1.08E+13		0	2.80E+04 	  
!!REV	/ 14.00E+09 0 7.52E+03/							
!!PLOG /20 5.4E+12	0	2.80E+04 / 
!!PLOG /40 5.4E+12		0	2.80E+04 /


!Test_160 by Yang Li-----------------------------------------------------------------------------------!

!NC7H15OO=NC7H14+HO2              5.4E+12       0    2.80E+04       
!!REV / 14.00E+09 0 7.52E+03/                            
!!PLOG /20 5.4E+12  0    2.80E+04 /
!!PLOG /40 5.4E+12       0    2.80E+04 /

NC7H15OO=NC7H14+HO2              2.8E+12       0    2.80E+04       
!REV / 14.00E+09 0 7.52E+03/                            
!PLOG /20 5.4E+12  0    2.80E+04 /
!PLOG /40 5.4E+12       0    2.80E+04 /

!Test_160 by Yang Li-----------------------------------------------------------------------------------!


!Test_43 by Yang Li-----------------------------------------------------------------------------------!


NC7H14+O2=>C3H6+C2H5+CH2O+HCO	3.16E+13	0	10000			


!Test_158 by Yang Li-----------------------------------------------------------------------------------!

!NC7H15=>C3H6+C2H5+C2H4		1.20E+11	0	28728.046 		

NC7H15=>C3H6+C2H5+C2H4		5E+8	0	10000

!Test_158 by Yang Li-----------------------------------------------------------------------------------!


!IC8 reduced
IC8H18+HO2<=>C8H17+H2O2			5.0e13	0		18.74e3  !2.5e13	0		18.74e3 !AC 3e13
REV/ 0.5E+13 0 1.04E+04/    
IC8H18+O2<=>C8H17+HO2 			1.00E+14	0		50271
REV/ 2E+12  0   1475/
IC8H18+OH<=>C8H17+H2O 			1.46e8	2.03		0    !AC was 16.26e6  
REV/ 5e+15 0 2.565e+04/


!Test_105 by Yang Li-----------------------------------------------------------------------------------!Based on 95

!C8H17=>IC3H7+C3H6+C2H4	      	1E+18 -1.27  		29700.0

C8H17=>IC3H7+C3H6+C2H4	      	3E+13 -1.27  		10000

!Test_105 by Yang Li-----------------------------------------------------------------------------------!


C8H17+O2 <=>C8H17O2	 			2.5e+12	0		465 
REV/ 2.5E+15 0 3.13E+04/           

!For Stiffness by Yang Li
!C8H17O2<=>C8H16OOH  				2.86E+11	1.23		2.2E+04 
C8H17O2<=>C8H16OOH  				2.86E+10	1.23		2.2E+04 
REV/137233822.99526 1.2849540893983 6835.5605796388/


!Test_3 by Yang Li-----------------------------------------------------------------------------------!

!C8H17O2<=>C8H16+HO2 	       		2.9E+14   0.00   	2.8056E+04 
!PLOG /10 5.69e+14 0 2.6056e+04 /   !AC 0.80e14 
!PLOG /20 2.09e+14 0 2.6056e+04 /    !AC 2.0e14
!PLOG /40 2.92e+14 0 2.6056e+04 / !AC 3.5e14                                      
!PLOG /100 4.44e+14 0 2.6056e+04 /  !AC 8.0e14	

C8H17O2<=>C8H16+HO2 	       		5.0e+14 0 2.6056e+04 
PLOG /10 2.0e+14 0 2.6056e+04 /
PLOG /20 2.5e+14 0 2.6056e+04 /
PLOG /40 3.5e+14 0 2.6056e+04 /

!Test_3 by Yang Li-----------------------------------------------------------------------------------!


!For Stiffness by Yang Li
!C8H16OOH+O2<=>C8H16OOH-O2			8.00E+14		0		0     
!REV/7.14E+14 0 3.39E+04/
C8H16OOH+O2<=>C8H16OOH-O2			3.00E+14		0		0     
REV/2E+15 0 3.39E+04/


C8H16OOH-O2<=>IC8KET+OH 			2.53E+12	0		2.6E+04 !AC 2.53E12   


C8H16+O2=>IC3H7+CH4+C2H2+CH2O+HCO 	3.160E+13  0.00  	10000.0 

IC8KET<=>CH2O+CH3+OH+C4H8-1+CH2CO   	1.00E+16 	0.000 	4.16E+04
REV/ 0.000E+00 0.000 0.000E+00 /

!!!!start of Aramco 2.0
H2+M<=>H+H+M                                      4.577E+019    -1.400  104400.0 !\AUTHOR: AK !\REF: TSANG AND HAMPSON, J. PHYS. CHEM. REF. DATA, 15:1087 (1986) !
H2/ 2.50/ H2O/ 12.00/ CO/ 1.90/ CO2/ 3.80/ CH4/ 2.00/      
                                                                                
                                                                  
H2+O<=>H+OH                                       5.080E+004     2.670    6292.0    !\AUTHOR: AK !\REF:SUTHERLAND ET AL., 21ST SYMPOSIUM, P. 929 (1986) !
H2+OH<=>H+H2O                                     4.380E+013     0.000    6990.0    !\AUTHOR: AK !\REF:LAM ET AL. SUBMITTED IJCK !\COMMENT
                                                                                

O+O+M<=>O2+M                                      6.165E+015    -0.500       0.0   !\AUTHOR: AK !\REF: TSANG AND HAMPSON, J. PHYS. CHEM. REF. DATA, 15:1087 (1986) !
H2/ 2.50/ H2O/ 12.00/ CO/ 1.90/ CO2/ 3.80/ CH4/ 2.00/ 

O2+H<=>O+OH                                       1.040E+014     0.000   15286.0   !\AUTHOR: AK !\REF: HONG ET AL. PROC. OF THE COMB. INST. 33 (2011) 309?16 !

H+OH+M<=>H2O+M                                    3.500E+022    -2.000       0.0  !\AUTHOR: AK !\REF: LI IJCK 36: 566?75, 2004 !
H2/ 0.73/ H2O/ 3.65/ CH4/ 2.00/ 

O+H2O<=>OH+OH                                     6.70E+07    1.704   14986.8     !\AUTHOR: AK !\REF: SUTHERLAND ET AL., 23RD SYMPOSIUM, P. 51 (1990) !

O+H+M<=>OH+M                                      4.714E+018    -1.000       0.0  !\AUTHOR: AK !\REF: TSANG AND HAMPSON, J. PHYS. CHEM. REF. DATA, 15:1087 (1986) !
H2/ 2.50/ H2O/ 12.00/ CO/ 1.50/ CO2/ 2.00/ CH4/ 2.00/ 

!______________________________________________________________________________
!\REACTIONCLASS: \DEACTIVATION
!______________________________________________________________________________

H2O2(+M)<=>OH+OH(+M)                              2.000E+012     0.900   48749.0   !\AUTHOR: AK !\REF: TROE, COMBUST. FLAME, 158:594-601 (2011)!
LOW/                                              2.490E+024    -2.300   48749.0/
TROE/  4.300E-001  1.000E-030  1.000E+030/
H2O/ 7.65/ CO2/ 1.60/ O2/ 1.20/ H2O2/ 7.70/ H2/ 3.70/ CO/ 2.80/

H2O2+H<=>H2O+OH                                   2.410E+013     0.000    3970.0   !\AUTHOR: AK !\REF:TSANG AND HAMPSON, J. PHYS. CHEM. REF. DATA, 15:1087 (1986) !
H2O2+H<=>H2+HO2                                   2.150E+010     1.000    6000.0   !\AUTHOR: AK !\REF: ELLINGSON J. PHYS. CHEM. (2007) 111, (51), 13554-13566 !
H2O2+O<=>OH+HO2                                   9.550E+006     2.000    3970.0   !\AUTHOR: AK !\REF:TSANG AND HAMPSON, J. PHYS. CHEM. REF. DATA, 15:1087 (1986) !
H2O2+OH<=>H2O+HO2                                 1.740E+012     0.000     318.0   !\AUTHOR: AK !\REF: HONG ET AL. J. PHYS. CHEM. A 114 (2010) 5718-5727 !
DUP
H2O2+OH<=>H2O+HO2                                 7.590E+013     0.000    7269.0
DUP

HO2+H<=>OH+OH                                     7.079E+013     0.0000    295.0   !\AUTHOR: KPS !\REF: NOT A CLUE WHAT REFERENCE IS HERE AS MECHANISM IS A MESS !
HO2+H<=>H2+O2                                     1.1402E+010    1.0827    553.78  !\AUTHOR: AK  !\REF:MICHAEL SUTHERLAND 2000 !
HO2+O<=>OH+O2                                     3.250E+013     0.0000    0.0000  !\AUTHOR: AK  !\REF:BAULCH ET AL., J. PHYS. CHEM. REF DATA, 21:411 (1992)
OH+HO2<=>H2O+O2                                     7.00E+12       0.0000   -1092.96 !\AUTHOR: ?? !\REF: hong pci 2013 1015C !
DUP                                                              
OH+HO2<=>H2O+O2                                     4.50E+14       0.0000    10929.6
DUP                                                              
HO2+HO2<=>H2O2+O2                                   1.00E+14       0.0000   11040.8832   !\AUTHOR: AK !\REF: hong pci 2013, kapel 2002 !
DUP                                                              
HO2+HO2<=>H2O2+O2                                   1.90E+11       0.0000   -1408.9248
DUP
!______________________________________________________________________________
!\REACTIONCLASS: \RADICAL_ALPHA_SCISSION          \A             \N        \EA
!______________________________________________________________________________
H+O2(+M)<=>HO2(+M)                                4.650E+012     0.440       0.0      !\AUTHOR: AK !\REF:FERNANDES PCCP 2008 !COMMENT: Efficiencis of AR and HE derived from seperated reactions, otherwise lead to error in flame extinction simulation 
LOW/                                              1.737E+019    -1.230       0.0/
TROE/  6.700E-001  1.000E-030  1.000E+030  1.000E+030/
H2/ 1.30/ CO/ 1.90/ CO2/ 3.80/ H2O/ 10.00/ CH4/ 2.00/  
!H+O2(+AR)<=>HO2(+AR)                              4.650E+012     0.440       0.0  !\AUTHOR: AK !\REF: BATES ET AL. PCCP 3 (2001) 2337-2342 !
!LOW/                                              6.810E+018    -1.200       0.0/
!TROE/  7.000E-001  1.000E-030  1.000E+030  1.000E+030/
!
!H+O2(+HE)<=>HO2(+HE)                              4.650E+012     0.440       0.0  !\AUTHOR: AK !\REF: ?? NOT WELL DEFINED IN MECHANISM?! !
!LOW/                                              9.192E+018    -1.200       0.0/
!TROE/  5.900E-001  1.000E-030  1.000E+030  1.000E+030/

CO+O(+M)<=>CO2(+M)                                1.362E+010     0.000    2384.0 !\AUTHOR: ?? !\REF: MEULLER 99 * 0.76 
LOW/                                              1.173E+024    -2.790    4191.0/
H2/ 2.00/ H2O/ 12.00/ CO/ 1.75/ CO2/ 3.60/
!______________________________________________________________________________
!\REACTIONCLASS: \RADICAL_ADDITION\OH             \A             \N        \EA
!______________________________________________________________________________
CO+OH<=>CO2+H                                     7.015E+004     2.053    -355.7 !\AUTHOR: ?? !\REF: JOSHI AND WANG IJCK (2006), 38, (1), 57-73. !
DUP
CO+OH<=>CO2+H                                     5.757E+012    -0.664     331.8
DUP
!______________________________________________________________________________
!\REACTIONCLASS: \RADICAL_ADDITION\HO2            \A             \N        \EA
!______________________________________________________________________________
CO+HO2<=>CO2+OH                                   1.570E+005     2.180   17940.0 !\AUTHOR: ?? !\REF: YOU ET AL. J. PHYS. CHEM. A 2007, 111, 4031-4042 !
!______________________________________________________________________________
!\REACTIONCLASS: \R+O2                            \A             \N        \EA
!______________________________________________________________________________
CO+O2<=>CO2+O                                     1.119E+012     0.000   47700.0 !\AUTHOR: ?? !\REF: 86TSA/ HAM * 0.44 !
!==============================================================================
!\SUBSPECIES: \CO2
!==============================================================================
!_____________________________________________________________________________
!\REACTIONCLASS: \RADICAL_ADIDTION\H
!______________________________________________________________________________
!==============================================================================
!\ENDSUBSPECIES: \CO2
!==============================================================================
!==============================================================================
!\SUBSPECIES: \HOCO
!==============================================================================

CH3+H(+M)<=>CH4(+M)                               1.270E+016    -0.630     383.0 !\AUTHOR: ?? !\REF: GRI MECHANISM !1.270E+016    -0.630     383.0
LOW/                                              2.477E+033    -4.760    2440.0/    !2.477E+033    -4.760    2440.0
TROE/  7.830E-001  7.400E+001  2.941E+003  6.964E+003/
H2/ 2.00/ H2O/ 6.00/ CO/ 1.50/ CO2/ 2.00/ CH4/ 2.00/ 
!______________________________________________________________________________
!\REACTIONCLASS: \RH_R_ABSTRACTION                \A             \N        \EA
!______________________________________________________________________________
CH4+H<=>CH3+H2                                    6.140E+005     2.500    9587.0 !\AUTHOR: !\REF: BAULCH, D.L.; ET AL.,J. PHYS. CHEM. REF. DATA (2005) !
CH4+O<=>CH3+OH                                    1.020E+009     1.500    8600.0 !\AUTHOR: !\REF: !REF:GRI 3.0 !
CH4+OH<=>CH3+H2O                                  5.830E+004     2.600    2190.0 !\AUTHOR: !\REF: CURRAN ESTIMATE, FIT TO NIST DATABASE !
CH4+HO2<=>CH3+H2O2                                1.130E+001     3.740   21010.0 !\AUTHOR: !\REF: J. AGUILERA-IPARRAGUIRRE ET AL. J PHYS CHEM A (2008) 112(30): 7047-7054. !
!DC CH4+CH3O2<=>CH3+CH3O2H                            9.600E-001     3.770   17810.0 !\AUTHOR: !\REF: NEW FIT FROM HJC !
CH3+HO2<=>CH4+O2                                  1.160E+005     2.230   -3022.0 !\AUTHOR: !\REF: JASPER/ KLIPPENSTEIN PROC COMBUST INST 32 (2009) 279?86 !
!______________________________________________________________________________
!\REACTIONCLASS: \RADICAL_ADDITION\CH2            \A             \N        \EA
!______________________________________________________________________________
CH4+CH2<=>CH3+CH3                                 2.460E+006     2.000    8270.0 !\AUTHOR: !\REF: GRI 3.0 !
!==============================================================================
!\SUBSPECIES: \CH2(S)
!==============================================================================
!______________________________________________________________________________
!\REACTIONCLASS: \DEACTIVATION                   \A             \N        \EA
!______________________________________________________________________________
!______________________________________________________________________________
!\REACTIONCLASS: \RADICAL_RECOMBINATIONS          \A             \N        \EA
!______________________________________________________________________________
!==============================================================================
!\ENDSUBSPECIES: \CH2(S)
!==============================================================================
!==============================================================================
!\SUBSPECIES: \CH2
!==============================================================================
CH2+H(+M)<=>CH3(+M)                               2.500E+016    -0.800       0.0 !\AUTHOR: !\REF: LASKIN ET AL. IJCK 32 589-614 2000 !
LOW/                                              3.200E+027    -3.140    1230.0/
TROE/  6.800E-001  7.800E+001  1.995E+003  5.590E+003/
H2/ 2.00/ H2O/ 6.00/ CO/ 1.50/ CO2/ 2.00/ CH4/ 2.00/ 
!______________________________________________________________________________
!\REACTIONCLASS: \RADICAL_RECOMBINATIONS          \A             \N        \EA
!______________________________________________________________________________
CH2+O2<=>HCO+OH                                   1.060E+013     0.000    1500.0 !\AUTHOR: !\REF: GRI 3.0 !
CH2+O2=>CO2+H+H                                   2.640E+012     0.000    1500.0 !\AUTHOR: !\REF: GRI 3.0 !
CH2+O=>CO+H+H                                     5.000E+013     0.000       0.0 !\AUTHOR: !\REF: GRI 3.0 !
CH2+H<=>CH+H2                                     3.000E+013     0.000       0.0 !\AUTHOR: !\REF: GLARBORG, MILLER, AND KEE, WESTERN STATES SECTION, SAN ANTONIO (1985) !
CH2+OH<=>CH+H2O                                   1.130E+007     2.000    3000.0 !\AUTHOR: !\REF: GRI 3.0 !

!______________________________________________________________________________
!\REACTIONCLASS: \RADICAL_RECOMBINATIONS          \A             \N        \EA
!______________________________________________________________________________
CH+O2<=>HCO+O                                     3.300E+013     0.000       0.0 !\AUTHOR: !\REF: GRI 3.0                                                               !
CH+O<=>CO+H                                       5.700E+013     0.000       0.0 !\AUTHOR: !\REF: MESSING ET AL.,J. CHEM. PHYS. 74, 3874 (1981)                         !
CH+OH<=>HCO+H                                     3.000E+013     0.000       0.0 !\AUTHOR: !\REF: GLARBORG, MILLER, AND KEE, WESTERN STATES SECTION, SAN ANTONIO (1985) !
CH+H2O<=>H+CH2O                                   1.774E+016    -1.220      23.8 !\AUTHOR: !\REF:BERGEAT ET AL., CHEM. PHYS. LETT. 480, 21 (2009)                       !
CH+CO2<=>HCO+CO                                   1.700E+012     0.000     685.0 !\AUTHOR: !\REF: BERMAN, FLEMING, HARVEY AND LIN, 19TH SYMP. COMB. P. 73, 1982         !


CH3+O2(+M)<=>CH3O2(+M)                            7.812E+009     0.900       0.0  !\AUTHOR: ?? !\REF: R.X. FERNANDES ET AL.,J PHYS. CHEM. A, (2006) 110:4442-4449.  !
LOW/                                              6.850E+024    -3.000       0.0/
TROE/  6.000E-001  1.000E+003  7.000E+001  1.700E+003/
CH3+O2<=>CH3O+O                                   7.546E+012     0.000   28320.0  !\AUTHOR: ?? !\REF:N. K. SRINIVASAN ET AL.,J. PHYS. CHEM. A 109, 7902-7914 (2005) !
CH3+O2<=>CH2O+OH                                  2.641E+000     3.283    8105.0  !\AUTHOR: ?? !\REF: PERSONAL COMMUNICATION, STEVE KLIPPENSTEIN !

CH3+O<=>CH2O+H                                    5.540E+013     0.050    -136.0 !\AUTHOR:     !\REF:HARDING AND KLIPPENSTEIN 2B04, 30TH SYMP 2004. !

CH3+OH<=>CH2O+H2                                  3.502E+005     1.441   -3244.0 !\AUTHOR: ??  !\REF:FROM JASPER/ KLIPP,J.PHYS.CHEM A 111,19,3932-3950 !
PLOG/      0.0100     3.502E+005     1.441     -3244.0/
PLOG/      0.1000     8.854E+005     1.327     -2975.0/
PLOG/      1.0000     1.650E+007     0.973     -2010.0/
PLOG/     10.0000     5.374E+009     0.287       280.0/
PLOG/    100.0000     9.494E+018    -2.199      9769.0/
CH3+OH<=>CH2OH+H                                  1.621E+010     0.965    3210.0 !\AUTHOR: ??  !\REF:FROM JASPER/ KLIPP,J.PHYS.CHEM A 111,19,3932-3950 !
PLOG/      0.0100     1.621E+010     0.965      3214.0/
PLOG/      0.1000     1.807E+010     0.950      3247.0/
PLOG/      1.0000     4.686E+010     0.833      3566.0/
PLOG/     10.0000     1.525E+013     0.134      5641.0/
PLOG/    100.0000     3.590E+014    -0.186      8601.0/
CH3+OH<=>H+CH3O                                   1.186E+009     1.016   11940.0 !\AUTHOR: ??  !\REF:FROM JASPER/ KLIPP,J.PHYS.CHEM A 111,19,3932-3950 !
PLOG/      0.0100     1.186E+009     1.016     11940.0/
PLOG/      0.1000     1.188E+009     1.016     11940.0/
PLOG/      1.0000     1.230E+009     1.011     11950.0/
PLOG/     10.0000     1.798E+009     0.965     12060.0/
PLOG/    100.0000     5.242E+010     0.551     13070.0/
CH3+OH<=>CH2+H2O                                  4.293E+004     2.568    3997.8 !\AUTHOR: ??  !\REF:FROM JASPER/ KLIPP,J.PHYS.CHEM A 111,19,3932-3950 !
!______________________________________________________________________________
!\REACTIONCLASS: \R+HO2                           \A             \N        \EA
!______________________________________________________________________________
CH3+HO2<=>CH3O+OH                                 1.000E+012     0.269    -687.5 !\AUTHOR: ?? !\REF: JASPER/ KLIPPENSTEIN PROC COMBUST INST 32 (2009) 279?86 !
!==============================================================================
!\ENDSUBSPECIES: \CH3
!==============================================================================
!==============================================================================
!\SUBSPECIES: \CH3O2
!==============================================================================
!______________________________________________________________________________
!\REACTIONCLASS: \RADICAL_RECOMBINATIONS          \A             \N        \EA
!______________________________________________________________________________
CH3O2+O<=>CH3O+O2                                 3.600E+013     0.000       0.0 !\AUTHOR: !\REF:LIGHTFOOT ET AL. J. CHEM. SOC. FARA TRANS. 1991, 87(19), 3213--3220. !
CH3O2+H<=>CH3O+OH                                 9.600E+013     0.000       0.0 !\AUTHOR: !\REF:LIGHTFOOT ET AL. J. CHEM. SOC. FARA TRANS. 1991, 87(19), 3213--3220. !
CH3O2+OH<=>CH3OH+O2                               6.000E+013     0.000       0.0 !\AUTHOR: !\REF:LIGHTFOOT ET AL. J. CHEM. SOC. FARA TRANS. 1991, 87(19), 3213--3220. !
!DC CH3O2+HO2<=>CH3O2H+O2                             2.470E+011     0.000   -1570.0 !\AUTHOR: !\REF:LIGHTFOOT,P.D. ETAL., ATMOS. ENVIRON. PART A: 26, 1805-1961 (1992)   !
!DC CH3O2+H2O2<=>CH3O2H+HO2                           2.410E+012     0.000    9936.0 !\AUTHOR: !\REF:!REF:Tsang, W., J. Phys. Chem. Ref. Data 15, 1087 (1986) !
CH3O2+CH3<=>CH3O+CH3O                             5.080E+012     0.000   -1411.0 !\AUTHOR: !\REF:KEIFFER, M. ET AL.,J. CHEM. SOC. FARADAY TRANS. 2: 84, 505 (1988)    !
CH3O2+CH3O2=>CH2O+CH3OH+O2                        3.110E+014    -1.610   -1051.0 !\AUTHOR: !\REF:LIGHTFOOT ET AL. J. CHEM. SOC. FARA TRANS. 1991, 87(19), 3213--3220. !
CH3O2+CH3O2=>O2+CH3O+CH3O                         1.400E+016    -1.610    1860.0 !\AUTHOR: !\REF:LIGHTFOOT ET AL. J. CHEM. SOC. FARA TRANS. 1991, 87(19), 3213--3220. !
!______________________________________________________________________________
!\REACTIONCLASS: \RH_R_ABSTRACTION                \A             \N        \EA
!______________________________________________________________________________
!DC H2+CH3O2<=>H+CH3O2H                               1.500E+014     0.000   26030.0 !\AUTHOR: !\REF:TSANG & HAMPSON, METHANE, J. PHYS. CHEM. REF. DATA, VOL 15, 1986 !

!DC CH3O2H<=>CH3O+OH                                  6.310E+014     0.000   42300.0 !\AUTHOR: !\REF:LIGHTFOOT ET AL. J. CHEM. SOC. FARA TRANS. 1991, 87(19), 3213--3220. !

!\REACTIONCLASS: \UNIMOL                          \A             \N        \EA
!______________________________________________________________________________
CH3OH(+M)<=>CH3+OH(+M)                            2.084E+018    -0.615   92540.6  !\AUTHOR: !\REF:FROM JASPER/ KLIPP,J.PHYS.CHEM A 111,19,3932-3950 !
LOW/                                              1.500E+043    -6.995   97992.2/
TROE/ -4.748E-001  3.558E+004  1.116E+003  9.023E+003/
CH3OH(+M)<=>CH2OH+H(+M)                           7.896E-003     5.038   84467.4  !\AUTHOR: !\REF:FROM JASPER/ KLIPP,J.PHYS.CHEM A 111,19,3932-3950 !
LOW/                                              3.390E+042    -7.244  105230.3/
TROE/ -7.391E+001  3.705E+004  4.150E+004  5.220E+003/
!______________________________________________________________________________
!\REACTIONCLASS: \RH_R_ABSTRACTIONS               \A             \N        \EA
!______________________________________________________________________________
CH3OH+H<=>CH3O+H2                                 1.990E+005     2.560   10300.0 !\AUTHOR: !\REF:J. CHEM. PHYS. 134, 094302 (2011) !
CH3OH+H<=>CH2OH+H2                                3.070E+005     2.550    5440.0 !\AUTHOR: !\REF:J. CHEM. PHYS. 134, 094302 (2011)                                         !
CH3OH+O<=>CH3O+OH                                 3.880E+004     2.500    3080.0 !\AUTHOR: !\REF:TSANG, JPC REF. DATA, 16:471 (1987)!
CH3OH+O<=>CH2OH+OH                                3.880E+005     2.500    3080.0 !\AUTHOR: !\REF:TSANG, JPC REF. DATA, 16:471 (1987)                                       !
CH3OH+OH<=>CH3O+H2O                               1.500E+002     3.030    -763.0 !\AUTHOR: !\REF:XU ET AL. PROC 31 2007 159-166    !
CH3OH+OH<=>CH2OH+H2O                              3.080E+004     2.650    -806.7 !\AUTHOR: !\REF:XU ET AL. PROC 31 2007 159-166                                            !